<?xml version="1.0" encoding="UTF-8"?>

<!-- generated on 2024-05-01 00:53:04 by Eclipse SUMO netedit Version 1.19.0
<configuration xmlns:xsi="http://www.w3.org/2001/XMLSchema-instance" xsi:noNamespaceSchemaLocation="http://sumo.dlr.de/xsd/neteditConfiguration.xsd">

    <input>
        <sumocfg-file value="/home/kuriatsu/Source/Penn/highway.sumocfg"/>
        <route-files value="/home/kuriatsu/Source/Penn/highway.rou.xml"/>
        <sumo-net-file value="/home/kuriatsu/Source/Penn/highway.net.xml"/>
    </input>

    <output>
        <output-file value="/home/kuriatsu/Source/Penn/highway.net.xml"/>
    </output>

    <processing>
        <geometry.min-radius.fix.railways value="false"/>
        <geometry.max-grade.fix value="false"/>
        <offset.disable-normalization value="true"/>
        <lefthand value="0"/>
    </processing>

    <junctions>
        <no-internal-links value="true"/>
        <no-turnarounds value="true"/>
        <junctions.corner-detail value="5"/>
        <junctions.limit-turn-speed value="5.50"/>
        <rectangular-lane-cut value="0"/>
    </junctions>

    <pedestrian>
        <walkingareas value="0"/>
    </pedestrian>

</configuration>
-->

<net version="1.16" junctionCornerDetail="5" limitTurnSpeed="5.50" xmlns:xsi="http://www.w3.org/2001/XMLSchema-instance" xsi:noNamespaceSchemaLocation="http://sumo.dlr.de/xsd/net_file.xsd">

    <location netOffset="0.00,0.00" convBoundary="0.00,0.00,1000.00,0.00" origBoundary="-10000000000.00,-10000000000.00,10000000000.00,10000000000.00" projParameter="!"/>

    <edge id="E0" from="J0" to="J1" priority="-1" length="4000.00">
        <lane id="E0_0" index="0" speed="80.00" length="4000.00" shape="0.00,-14.40 1000.00,-14.40"/>
        <lane id="E0_1" index="1" speed="80.00" length="4000.00" shape="0.00,-11.20 1000.00,-11.20"/>
        <lane id="E0_2" index="2" speed="80.00" length="4000.00" shape="0.00,-8.00 1000.00,-8.00"/>
        <lane id="E0_3" index="3" speed="80.00" length="4000.00" shape="0.00,-4.80 1000.00,-4.80"/>
        <lane id="E0_4" index="4" speed="80.00" length="4000.00" shape="0.00,-1.60 1000.00,-1.60"/>
    </edge>

    <junction id="J0" type="dead_end" x="0.00" y="0.00" incLanes="" intLanes="" shape="0.00,0.00 0.00,-16.00"/>
    <junction id="J1" type="dead_end" x="1000.00" y="0.00" incLanes="E0_0 E0_1 E0_2 E0_3 E0_4" intLanes="" shape="1000.00,-16.00 1000.00,0.00"/>

</net>
