<?xml version="1.0" encoding="UTF-8"?>

<!-- generated on 2024-04-26 00:46:50 by Eclipse SUMO netedit Version 1.19.0
-->

<routes xmlns:xsi="http://www.w3.org/2001/XMLSchema-instance" xsi:noNamespaceSchemaLocation="http://sumo.dlr.de/xsd/routes_file.xsd">
    <!-- VTypes -->
    <vType id="t_0" minGap="5.00" color="0,128,0" accel="1" decel="2"/>
    <vType id="t_1" minGap="1.00" color="255,130,0" accel="4" decel="6"/>
    <!-- Routes -->
    <route id="r_0" edges="-E2 -E1"/>
    <route id="r_1" edges="-E2 E3"/>
    <route id="r_10" edges="E1 E3"/>
    <route id="r_11" edges="E1 E2"/>
    <route id="r_2" edges="-E2 -E0"/>
    <route id="r_3" edges="-E3 -E0"/>
    <route id="r_4" edges="-E3 -E1"/>
    <route id="r_5" edges="-E3 E2"/>
    <route id="r_6" edges="E0 -E1"/>
    <route id="r_7" edges="E0 E3"/>
    <route id="r_8" edges="E0 E2"/>
    <route id="r_9" edges="E1 -E0"/>
    <!-- Vehicles, persons and containers (sorted by depart) -->
    <trip id="t_1" depart="0.00" from="-E3" to="-E0"/>
    <trip id="t_2" depart="0.00" from="E0" to="E3"/>
    <trip id="t_3" depart="0.00" from="-E3" to="E2"/>
    <trip id="t_4" depart="0.00" from="-E3" to="-E1"/>
    <trip id="t_6" depart="0.00" from="-E2" to="-E0"/>
    <trip id="t_7" type="t_1" depart="0.00" from="E1" to="E3"/>
</routes>
