<?xml version="1.0" encoding="UTF-8"?>

<!-- generated on 2024-04-26 23:07:06 by Eclipse SUMO netedit Version 1.19.0
-->

<routes xmlns:xsi="http://www.w3.org/2001/XMLSchema-instance" xsi:noNamespaceSchemaLocation="http://sumo.dlr.de/xsd/routes_file.xsd">
    <!-- VTypes -->
    <vType id="t_0"/>
    <vType id="ego_imp_0" color="32,0,50" jmCrossingGap="30" jmIgnoreFoeProb="0.0"/>
    <vType id="ego_imp_1" color="64,0,50" jmCrossingGap="20" jmIgnoreFoeProb="0.3"/>
    <vType id="ego_imp_2" color="96,0,50" jmCrossingGap="10" jmIgnoreFoeProb="0.7"/>
    <vType id="ego_imp_3" color="128,0,50" jmCrossingGap="0.0" jmIgnoreFoeProb="1.0"/>
    <vType id="ped_imp_0" color="32,0,50" vClass="pedestrian" impatience="1.0" jmIgnoreFoeProb="1.0"/>
    <vType id="ped_imp_1" color="64,0,50" vClass="pedestrian" impatience="1.0" jmIgnoreFoeProb="1.0"/>
    <vType id="ped_imp_2" color="128,0,50" vClass="pedestrian" impatience="1.0" jmIgnoreFoeProb="1.0"/>
    <!-- Routes -->
    <route id="r_0" edges="E0 E1"/>
    <route id="r_1" edges="-E1 -E0"/>
    <route id="r_10" edges="E0 E3" color="yellow"/>
    <route id="r_11" edges="E0 E1" color="yellow"/>
    <route id="r_2" edges="E2 E3"/>
    <route id="r_3" edges="-E3 -E2"/>
    <route id="r_4" edges="-E1 E3"/>
    <route id="r_5" edges="-E1 -E2"/>
    <route id="r_6" edges="E2 E1"/>
    <route id="r_7" edges="E2 -E0"/>
    <route id="r_8" edges="-E3 E1"/>
    <route id="r_9" edges="-E3 -E0"/>
    <!-- Vehicles, persons and containers (sorted by depart) -->
    <vTypeDistribution id="ego_dist" vTypes="ego_imp_0 ego_imp_1 ego_imp_2 ego_imp_3"/>
    <vTypeDistribution id="ped_dist" vTypes="ped_imp_0 ped_imp_1 ped_imp_2"/>
    <personFlow id="pf_0" type="ped_dist" begin="0.00" end="3600.00" personsPerHour="500">
        <personTrip from="E0" to="E1" lines="ANY"/>
    </personFlow>
    <flow id="t_0" type="ego_dist" begin="0.00" route="r_3" end="3600.00" vehsPerHour="300"/>
    <!--flow id="t_1" type="ego_imp_3" begin="0.00" route="r_3" end="3600.00" vehsPerHour="500"/-->

</routes>
