<?xml version="1.0" encoding="UTF-8"?>

<!-- generated on 2024-04-26 00:46:51 by Eclipse SUMO netedit Version 1.19.0
<configuration xmlns:xsi="http://www.w3.org/2001/XMLSchema-instance" xsi:noNamespaceSchemaLocation="http://sumo.dlr.de/xsd/neteditConfiguration.xsd">

    <input>
        <sumocfg-file value="/home/kuriatsu/Source/Penn/intersection.sumocfg"/>
        <route-files value="/home/kuriatsu/Source/Penn/intersection.rou.xml"/>
        <sumo-net-file value="/home/kuriatsu/Source/Penn/intersection.net.xml"/>
    </input>

    <output>
        <output-file value="/home/kuriatsu/Source/Penn/intersection.net.xml"/>
    </output>

    <processing>
        <offset.disable-normalization value="true"/>
    </processing>

    <junctions>
        <no-turnarounds value="true"/>
    </junctions>

    <netedit>
        <new-network value="false"/>
    </netedit>

</configuration>
-->

<net version="1.16" junctionCornerDetail="5" limitTurnSpeed="5.50" xmlns:xsi="http://www.w3.org/2001/XMLSchema-instance" xsi:noNamespaceSchemaLocation="http://sumo.dlr.de/xsd/net_file.xsd">

    <location netOffset="0.00,0.00" convBoundary="-86.91,-193.51,171.85,181.16" origBoundary="10000000000.00,10000000000.00,-10000000000.00,-10000000000.00" projParameter="!"/>

    <edge id=":J1_0" function="internal">
        <lane id=":J1_0_0" index="0" speed="6.63" length="9.20" shape="32.63,64.78 32.19,62.28 31.08,60.50 29.29,59.44 26.83,59.09"/>
    </edge>
    <edge id=":J1_1" function="internal">
        <lane id=":J1_1_0" index="0" speed="13.89" length="20.92" shape="32.63,64.78 32.38,43.83"/>
        <lane id=":J1_1_1" index="1" speed="13.89" length="20.92" shape="35.83,64.74 35.58,43.83"/>
    </edge>
    <edge id=":J1_3" function="internal">
        <lane id=":J1_3_0" index="0" speed="9.16" length="5.32" shape="35.83,64.74 36.38,59.45"/>
    </edge>
    <edge id=":J1_16" function="internal">
        <lane id=":J1_16_0" index="0" speed="9.16" length="14.19" shape="36.38,59.45 38.54,55.67 42.31,53.40 47.69,52.64"/>
    </edge>
    <edge id=":J1_4" function="internal">
        <lane id=":J1_4_0" index="0" speed="6.41" length="9.03" shape="47.70,59.04 45.21,59.39 43.48,60.44 42.48,62.20 42.23,64.66"/>
    </edge>
    <edge id=":J1_5" function="internal">
        <lane id=":J1_5_0" index="0" speed="13.89" length="20.87" shape="47.70,59.04 26.83,59.09"/>
        <lane id=":J1_5_1" index="1" speed="13.89" length="20.87" shape="47.69,55.84 26.82,55.89"/>
    </edge>
    <edge id=":J1_7" function="internal">
        <lane id=":J1_7_0" index="0" speed="9.28" length="4.99" shape="47.69,55.84 42.75,55.14"/>
    </edge>
    <edge id=":J1_17" function="internal">
        <lane id=":J1_17_0" index="0" speed="9.28" length="14.46" shape="42.75,55.14 42.39,55.09 38.61,52.84 36.34,49.09 35.58,43.83"/>
    </edge>
    <edge id=":J1_8" function="internal">
        <lane id=":J1_8_0" index="0" speed="6.53" length="9.12" shape="41.98,43.84 42.34,46.29 43.41,48.04 45.19,49.09 47.69,49.44"/>
    </edge>
    <edge id=":J1_9" function="internal">
        <lane id=":J1_9_0" index="0" speed="13.89" length="20.84" shape="41.98,43.84 42.23,64.66"/>
        <lane id=":J1_9_1" index="1" speed="13.89" length="20.84" shape="38.78,43.84 39.03,64.70"/>
    </edge>
    <edge id=":J1_11" function="internal">
        <lane id=":J1_11_0" index="0" speed="9.27" length="4.64" shape="38.78,43.84 38.13,48.43"/>
    </edge>
    <edge id=":J1_18" function="internal">
        <lane id=":J1_18_0" index="0" speed="9.27" length="14.71" shape="38.13,48.43 38.03,49.09 35.79,52.85 32.05,55.12 26.82,55.89"/>
    </edge>
    <edge id=":J1_12" function="internal">
        <lane id=":J1_12_0" index="0" speed="6.53" length="9.06" shape="26.79,49.49 29.24,49.13 30.98,48.06 32.03,46.30 32.38,43.83"/>
    </edge>
    <edge id=":J1_13" function="internal">
        <lane id=":J1_13_0" index="0" speed="13.89" length="20.90" shape="26.79,49.49 47.69,49.44"/>
        <lane id=":J1_13_1" index="1" speed="13.89" length="20.90" shape="26.80,52.69 47.69,52.64"/>
    </edge>
    <edge id=":J1_15" function="internal">
        <lane id=":J1_15_0" index="0" speed="9.40" length="4.97" shape="26.80,52.69 31.72,53.39"/>
    </edge>
    <edge id=":J1_19" function="internal">
        <lane id=":J1_19_0" index="0" speed="9.40" length="14.41" shape="31.72,53.39 31.96,53.42 35.71,55.67 38.07,59.42 39.03,64.70"/>
    </edge>

    <edge id="-E0" from="J1" to="J0" priority="-1">
        <lane id="-E0_0" index="0" speed="13.89" length="113.72" shape="26.83,59.09 -86.89,59.60"/>
        <lane id="-E0_1" index="1" speed="13.89" length="113.72" shape="26.82,55.89 -86.90,56.40"/>
    </edge>
    <edge id="-E1" from="J1" to="J2" priority="-1" shape="37.18,54.24 37.21,56.90 37.26,59.53 37.34,62.14 37.43,64.72 37.54,67.28 37.68,69.82 37.83,72.33 38.01,74.82 38.20,77.29 38.41,79.73 38.65,82.14 38.90,84.53 39.17,86.90 39.46,89.24 39.77,91.56 40.10,93.85 40.45,96.11 40.82,98.35 41.21,100.56 41.61,102.75 42.04,104.91 42.48,107.05 42.94,109.16 43.42,111.24 43.92,113.29 44.44,115.32 44.97,117.32 45.52,119.29 46.10,121.24 46.68,123.15 47.29,125.04 47.91,126.91 48.56,128.74 49.21,130.54 49.89,132.32 50.59,134.07 51.30,135.79 52.02,137.48 52.77,139.14 53.53,140.77 54.31,142.37 55.11,143.94 55.92,145.48 56.75,146.99 57.59,148.47 58.46,149.92 59.33,151.34 60.23,152.73 61.14,154.09 62.07,155.42 63.01,156.71 63.97,157.98 64.94,159.21 65.93,160.41 66.94,161.58 67.96,162.72 68.99,163.83 70.05,164.90 71.11,165.94 72.20,166.95 73.29,167.92 74.40,168.86 75.53,169.77 76.67,170.64 77.83,171.48 79.00,172.29 80.19,173.06 81.39,173.80 82.60,174.51 83.83,175.18 85.07,175.81 86.33,176.41 87.60,176.98 88.88,177.51 90.18,178.01 91.49,178.47 92.82,178.89 94.15,179.28 95.51,179.63 96.87,179.95 98.25,180.23 99.64,180.47 101.05,180.68 102.46,180.85 103.89,180.98 105.34,181.08 106.79,181.14 108.26,181.16">
        <lane id="-E1_0" index="0" speed="13.89" length="145.35" shape="42.23,64.66 42.33,67.04 42.47,69.54 42.62,72.01 42.80,74.46 42.98,76.90 43.19,79.29 43.43,81.65 43.67,84.01 43.94,86.33 44.22,88.63 44.52,90.90 44.85,93.14 45.19,95.35 45.55,97.54 45.93,99.71 46.32,101.85 46.74,103.96 47.18,106.06 47.62,108.11 48.09,110.13 48.58,112.13 49.08,114.11 49.60,116.06 50.13,117.96 50.70,119.86 51.26,121.72 51.85,123.55 52.45,125.35 53.08,127.12 53.71,128.87 54.36,130.57 55.04,132.26 55.73,133.93 56.42,135.55 57.13,137.14 57.86,138.70 58.61,140.23 59.37,141.73 60.15,143.21 60.94,144.65 61.74,146.05 62.56,147.43 63.39,148.78 64.24,150.09 65.10,151.38 65.98,152.63 66.86,153.85 67.77,155.05 68.68,156.20 69.60,157.31 70.55,158.41 71.51,159.49 72.45,160.51 73.44,161.50 74.42,162.47 75.43,163.40 76.44,164.30 77.46,165.16 78.49,165.99 79.53,166.79 80.60,167.56 81.67,168.30 82.75,169.00 83.86,169.69 84.96,170.33 86.07,170.93 87.19,171.50 88.34,172.05 89.50,172.57 90.66,173.05 91.84,173.51 93.01,173.92 94.22,174.30 95.42,174.65 96.66,174.97 97.90,175.26 99.14,175.51 100.40,175.73 101.69,175.92 102.96,176.08 104.27,176.20 105.60,176.29 106.92,176.34 108.33,176.36"/>
        <lane id="-E1_1" index="1" speed="13.89" length="145.35" shape="39.03,64.70 39.14,67.20 39.28,69.73 39.43,72.22 39.61,74.70 39.79,77.16 40.00,79.58 40.24,81.98 40.49,84.36 40.76,86.71 41.05,89.04 41.35,91.34 41.68,93.61 42.03,95.86 42.40,98.08 42.78,100.28 43.18,102.45 43.61,104.59 44.05,106.72 44.50,108.81 44.98,110.87 45.47,112.90 45.99,114.92 46.51,116.90 47.06,118.85 47.63,120.78 48.21,122.67 48.81,124.54 49.42,126.39 50.07,128.20 50.71,129.98 51.38,131.74 52.07,133.47 52.78,135.17 53.49,136.84 54.22,138.47 54.97,140.08 55.74,141.66 56.53,143.20 57.33,144.72 58.15,146.21 58.97,147.66 59.83,149.09 60.68,150.49 61.57,151.85 62.46,153.19 63.37,154.49 64.29,155.76 65.24,157.00 66.19,158.21 67.15,159.38 68.14,160.52 69.14,161.64 70.14,162.72 71.18,163.77 72.21,164.78 73.28,165.77 74.34,166.71 75.42,167.63 76.52,168.51 77.62,169.36 78.75,170.17 79.89,170.96 81.04,171.71 82.21,172.43 83.39,173.12 84.58,173.76 85.78,174.37 87.00,174.96 88.23,175.51 89.47,176.02 90.73,176.51 92.00,176.95 93.29,177.36 94.57,177.74 95.89,178.08 97.21,178.39 98.55,178.66 99.89,178.89 101.26,179.09 102.63,179.26 104.02,179.39 105.43,179.48 106.83,179.54 108.28,179.56"/>
    </edge>
    <edge id="-E2" from="J3" to="J1" priority="-1">
        <lane id="-E2_0" index="0" speed="13.89" length="237.35" shape="42.14,-193.51 41.98,43.84"/>
        <lane id="-E2_1" index="1" speed="13.89" length="237.35" shape="38.94,-193.51 38.78,43.84"/>
    </edge>
    <edge id="-E3" from="J4" to="J1" priority="-1">
        <lane id="-E3_0" index="0" speed="13.89" length="124.16" shape="171.85,58.97 47.70,59.04"/>
        <lane id="-E3_1" index="1" speed="13.89" length="124.16" shape="171.85,55.77 47.69,55.84"/>
    </edge>
    <edge id="E0" from="J0" to="J1" priority="-1">
        <lane id="E0_0" index="0" speed="13.89" length="113.72" shape="-86.93,50.00 26.79,49.49"/>
        <lane id="E0_1" index="1" speed="13.89" length="113.72" shape="-86.92,53.20 26.80,52.69"/>
    </edge>
    <edge id="E1" from="J2" to="J1" priority="-1" shape="108.26,181.16 106.79,181.14 105.34,181.08 103.89,180.98 102.46,180.85 101.05,180.68 99.64,180.47 98.25,180.23 96.87,179.95 95.51,179.63 94.15,179.28 92.82,178.89 91.49,178.47 90.18,178.01 88.88,177.51 87.60,176.98 86.33,176.41 85.07,175.81 83.83,175.18 82.60,174.51 81.39,173.80 80.19,173.06 79.00,172.29 77.83,171.48 76.67,170.64 75.53,169.77 74.40,168.86 73.29,167.92 72.20,166.95 71.11,165.94 70.05,164.90 68.99,163.83 67.96,162.72 66.94,161.58 65.93,160.41 64.94,159.21 63.97,157.98 63.01,156.71 62.07,155.42 61.14,154.09 60.23,152.73 59.33,151.34 58.46,149.92 57.59,148.47 56.75,146.99 55.92,145.48 55.11,143.94 54.31,142.37 53.53,140.77 52.77,139.14 52.02,137.48 51.30,135.79 50.59,134.07 49.89,132.32 49.21,130.54 48.56,128.74 47.91,126.91 47.29,125.04 46.68,123.15 46.10,121.24 45.52,119.29 44.97,117.32 44.44,115.32 43.92,113.29 43.42,111.24 42.94,109.16 42.48,107.05 42.04,104.91 41.61,102.75 41.21,100.56 40.82,98.35 40.45,96.11 40.10,93.85 39.77,91.56 39.46,89.24 39.17,86.90 38.90,84.53 38.65,82.14 38.41,79.73 38.20,77.29 38.01,74.82 37.83,72.33 37.68,69.82 37.54,67.28 37.43,64.72 37.34,62.14 37.26,59.53 37.21,56.90 37.18,54.24">
        <lane id="E1_0" index="0" speed="13.89" length="155.23" shape="108.19,185.96 106.66,185.94 105.08,185.87 103.51,185.76 101.96,185.62 100.41,185.44 98.88,185.21 97.36,184.95 95.84,184.64 94.36,184.29 92.88,183.91 91.42,183.48 89.97,183.02 88.52,182.51 87.10,181.97 85.70,181.39 84.32,180.77 82.95,180.12 81.59,179.43 80.24,178.69 78.92,177.91 77.63,177.12 76.33,176.28 75.06,175.40 73.81,174.49 72.57,173.55 71.34,172.56 70.14,171.54 68.97,170.50 67.80,169.41 66.66,168.30 65.53,167.15 64.41,165.95 63.33,164.75 62.26,163.51 61.20,162.22 60.17,160.91 59.16,159.57 58.16,158.21 57.18,156.80 56.22,155.37 55.27,153.90 54.36,152.41 53.44,150.89 52.56,149.33 51.69,147.75 50.85,146.15 50.01,144.51 49.20,142.84 48.41,141.14 47.62,139.41 46.87,137.65 46.14,135.88 45.42,134.07 44.71,132.21 44.04,130.36 43.37,128.47 42.73,126.53 42.10,124.58 41.50,122.62 40.91,120.62 40.34,118.58 39.80,116.53 39.26,114.45 38.75,112.35 38.26,110.21 37.78,108.04 37.34,105.86 36.90,103.65 36.49,101.41 36.09,99.16 35.71,96.87 35.35,94.56 35.02,92.22 34.70,89.85 34.40,87.47 34.13,85.05 33.87,82.63 33.63,80.17 33.42,77.68 33.22,75.18 33.04,72.65 32.89,70.10 32.75,67.52 32.63,64.91 32.63,64.78"/>
        <lane id="E1_1" index="1" speed="13.89" length="155.23" shape="108.24,182.76 106.75,182.74 105.25,182.68 103.76,182.57 102.29,182.44 100.84,182.27 99.39,182.05 97.95,181.80 96.53,181.51 95.13,181.18 93.73,180.82 92.35,180.42 90.98,179.99 89.63,179.51 88.29,179.00 86.97,178.45 85.66,177.86 84.36,177.25 83.08,176.60 81.81,175.90 80.57,175.17 79.34,174.41 78.11,173.62 76.91,172.79 75.72,171.92 74.54,171.03 73.38,170.09 72.24,169.13 71.12,168.13 70.01,167.10 68.92,166.03 67.84,164.94 66.78,163.80 65.74,162.64 64.71,161.44 63.69,160.21 62.70,158.96 61.73,157.66 60.77,156.35 59.82,154.99 58.89,153.61 57.98,152.19 57.09,150.75 56.21,149.28 55.35,147.77 54.51,146.24 53.69,144.68 52.88,143.08 52.09,141.46 51.32,139.81 50.55,138.12 49.82,136.41 49.11,134.67 48.40,132.90 47.71,131.10 47.05,129.28 46.40,127.43 45.77,125.54 45.15,123.63 44.57,121.70 43.98,119.73 43.43,117.74 42.89,115.72 42.37,113.68 41.86,111.61 41.38,109.51 40.91,107.38 40.47,105.23 40.04,103.05 39.64,100.84 39.24,98.62 38.87,96.36 38.52,94.09 38.19,91.78 37.87,89.44 37.58,87.09 37.31,84.70 37.06,82.30 36.82,79.88 36.61,77.42 36.41,74.94 36.23,72.44 36.08,69.91 35.94,67.36 35.83,64.74"/>
    </edge>
    <edge id="E2" from="J1" to="J3" priority="-1">
        <lane id="E2_0" index="0" speed="13.89" length="237.35" shape="32.38,43.83 32.54,-193.51"/>
        <lane id="E2_1" index="1" speed="13.89" length="237.35" shape="35.58,43.83 35.74,-193.51"/>
    </edge>
    <edge id="E3" from="J1" to="J4" priority="-1">
        <lane id="E3_0" index="0" speed="13.89" length="124.16" shape="47.69,49.44 171.85,49.37"/>
        <lane id="E3_1" index="1" speed="13.89" length="124.16" shape="47.69,52.64 171.85,52.57"/>
    </edge>

    <tlLogic id="J1" type="static" programID="0" offset="0">
        <phase duration="42" state="rrrrGGGgrrrrGGGg"/>
        <phase duration="3"  state="rrrryyyyrrrryyyy"/>
        <phase duration="42" state="GGGgrrrrGGGgrrrr"/>
        <phase duration="3"  state="yyyyrrrryyyyrrrr"/>
    </tlLogic>

    <junction id="J0" type="dead_end" x="-86.91" y="54.80" incLanes="-E0_0 -E0_1" intLanes="" shape="-86.91,54.80 -86.88,61.20 -86.91,54.80"/>
    <junction id="J1" type="traffic_light" x="37.18" y="54.24" incLanes="E1_0 E1_1 -E3_0 -E3_1 -E2_0 -E2_1 E0_0 E0_1" intLanes=":J1_0_0 :J1_1_0 :J1_1_1 :J1_16_0 :J1_4_0 :J1_5_0 :J1_5_1 :J1_17_0 :J1_8_0 :J1_9_0 :J1_9_1 :J1_18_0 :J1_12_0 :J1_13_0 :J1_13_1 :J1_19_0" shape="31.03,64.80 43.83,64.64 44.19,62.42 44.71,61.64 45.47,61.08 46.47,60.75 47.70,60.64 47.69,47.84 45.41,47.39 44.61,46.84 44.04,46.06 43.70,45.06 43.58,43.84 30.78,43.83 30.34,46.08 29.78,46.87 29.00,47.43 28.00,47.77 26.78,47.89 26.84,60.69 29.10,61.14 29.91,61.71 30.50,62.51 30.87,63.54">
        <request index="0"  response="0000000001100000" foes="0000000001100000" cont="0"/>
        <request index="1"  response="1111000011100000" foes="1111100011100000" cont="0"/>
        <request index="2"  response="1111000011100000" foes="1111100011100000" cont="0"/>
        <request index="3"  response="1110011011100000" foes="1110011011100000" cont="1"/>
        <request index="4"  response="0000000000000000" foes="0000011000000000" cont="0"/>
        <request index="5"  response="0000100000001000" foes="1000111000001111" cont="0"/>
        <request index="6"  response="0000100000001000" foes="1000111000001111" cont="0"/>
        <request index="7"  response="0110100000001000" foes="0110111000001110" cont="1"/>
        <request index="8"  response="0110000000000000" foes="0110000000000000" cont="0"/>
        <request index="9"  response="1110000011110000" foes="1110000011111000" cont="0"/>
        <request index="10" response="1110000011110000" foes="1110000011111000" cont="0"/>
        <request index="11" response="1110000011100110" foes="1110000011100110" cont="1"/>
        <request index="12" response="0000000000000000" foes="0000000000000110" cont="0"/>
        <request index="13" response="0000100000001000" foes="0000111110001110" cont="0"/>
        <request index="14" response="0000100000001000" foes="0000111110001110" cont="0"/>
        <request index="15" response="0000100001101000" foes="0000111001101110" cont="1"/>
    </junction>
    <junction id="J2" type="dead_end" x="108.26" y="181.16" incLanes="-E1_0 -E1_1" intLanes="" shape="108.26,181.16 108.17,187.56 108.34,174.76"/>
    <junction id="J3" type="dead_end" x="37.34" y="-193.51" incLanes="E2_0 E2_1" intLanes="" shape="37.34,-193.51 30.94,-193.51 37.34,-193.51"/>
    <junction id="J4" type="dead_end" x="171.85" y="54.17" incLanes="E3_0 E3_1" intLanes="" shape="171.85,54.17 171.85,47.77 171.85,54.17"/>

    <junction id=":J1_16_0" type="internal" x="36.38" y="59.45" incLanes=":J1_3_0 -E2_0 -E2_1" intLanes=":J1_5_0 :J1_5_1 :J1_7_0 :J1_8_0 :J1_9_0 :J1_9_1 :J1_13_0 :J1_13_1 :J1_15_0"/>
    <junction id=":J1_17_0" type="internal" x="42.75" y="55.14" incLanes=":J1_7_0 E0_0 E0_1" intLanes=":J1_1_0 :J1_1_1 :J1_3_0 :J1_9_0 :J1_9_1 :J1_11_0 :J1_12_0 :J1_13_0 :J1_13_1"/>
    <junction id=":J1_18_0" type="internal" x="38.13" y="48.43" incLanes=":J1_11_0 E1_0 E1_1" intLanes=":J1_0_0 :J1_1_0 :J1_1_1 :J1_5_0 :J1_5_1 :J1_7_0 :J1_13_0 :J1_13_1 :J1_15_0"/>
    <junction id=":J1_19_0" type="internal" x="31.72" y="53.39" incLanes=":J1_15_0 -E3_0 -E3_1" intLanes=":J1_1_0 :J1_1_1 :J1_3_0 :J1_4_0 :J1_5_0 :J1_5_1 :J1_9_0 :J1_9_1 :J1_11_0"/>

    <connection from="-E2" to="E3" fromLane="0" toLane="0" via=":J1_8_0" tl="J1" linkIndex="8" dir="r" state="o"/>
    <connection from="-E2" to="-E1" fromLane="0" toLane="0" via=":J1_9_0" tl="J1" linkIndex="9" dir="s" state="o"/>
    <connection from="-E2" to="-E1" fromLane="1" toLane="1" via=":J1_9_1" tl="J1" linkIndex="10" dir="s" state="o"/>
    <connection from="-E2" to="-E0" fromLane="1" toLane="1" via=":J1_11_0" tl="J1" linkIndex="11" dir="l" state="o"/>
    <connection from="-E3" to="-E1" fromLane="0" toLane="0" via=":J1_4_0" tl="J1" linkIndex="4" dir="r" state="O"/>
    <connection from="-E3" to="-E0" fromLane="0" toLane="0" via=":J1_5_0" tl="J1" linkIndex="5" dir="s" state="O"/>
    <connection from="-E3" to="-E0" fromLane="1" toLane="1" via=":J1_5_1" tl="J1" linkIndex="6" dir="s" state="O"/>
    <connection from="-E3" to="E2" fromLane="1" toLane="1" via=":J1_7_0" tl="J1" linkIndex="7" dir="l" state="o"/>
    <connection from="E0" to="E2" fromLane="0" toLane="0" via=":J1_12_0" tl="J1" linkIndex="12" dir="r" state="O"/>
    <connection from="E0" to="E3" fromLane="0" toLane="0" via=":J1_13_0" tl="J1" linkIndex="13" dir="s" state="O"/>
    <connection from="E0" to="E3" fromLane="1" toLane="1" via=":J1_13_1" tl="J1" linkIndex="14" dir="s" state="O"/>
    <connection from="E0" to="-E1" fromLane="1" toLane="1" via=":J1_15_0" tl="J1" linkIndex="15" dir="l" state="o"/>
    <connection from="E1" to="-E0" fromLane="0" toLane="0" via=":J1_0_0" tl="J1" linkIndex="0" dir="r" state="o"/>
    <connection from="E1" to="E2" fromLane="0" toLane="0" via=":J1_1_0" tl="J1" linkIndex="1" dir="s" state="o"/>
    <connection from="E1" to="E2" fromLane="1" toLane="1" via=":J1_1_1" tl="J1" linkIndex="2" dir="s" state="o"/>
    <connection from="E1" to="E3" fromLane="1" toLane="1" via=":J1_3_0" tl="J1" linkIndex="3" dir="l" state="o"/>

    <connection from=":J1_0" to="-E0" fromLane="0" toLane="0" dir="r" state="M"/>
    <connection from=":J1_1" to="E2" fromLane="0" toLane="0" dir="s" state="M"/>
    <connection from=":J1_1" to="E2" fromLane="1" toLane="1" dir="s" state="M"/>
    <connection from=":J1_3" to="E3" fromLane="0" toLane="1" via=":J1_16_0" dir="l" state="m"/>
    <connection from=":J1_16" to="E3" fromLane="0" toLane="1" dir="l" state="M"/>
    <connection from=":J1_4" to="-E1" fromLane="0" toLane="0" dir="r" state="M"/>
    <connection from=":J1_5" to="-E0" fromLane="0" toLane="0" dir="s" state="M"/>
    <connection from=":J1_5" to="-E0" fromLane="1" toLane="1" dir="s" state="M"/>
    <connection from=":J1_7" to="E2" fromLane="0" toLane="1" via=":J1_17_0" dir="l" state="m"/>
    <connection from=":J1_17" to="E2" fromLane="0" toLane="1" dir="l" state="M"/>
    <connection from=":J1_8" to="E3" fromLane="0" toLane="0" dir="r" state="M"/>
    <connection from=":J1_9" to="-E1" fromLane="0" toLane="0" dir="s" state="M"/>
    <connection from=":J1_9" to="-E1" fromLane="1" toLane="1" dir="s" state="M"/>
    <connection from=":J1_11" to="-E0" fromLane="0" toLane="1" via=":J1_18_0" dir="l" state="m"/>
    <connection from=":J1_18" to="-E0" fromLane="0" toLane="1" dir="l" state="M"/>
    <connection from=":J1_12" to="E2" fromLane="0" toLane="0" dir="r" state="M"/>
    <connection from=":J1_13" to="E3" fromLane="0" toLane="0" dir="s" state="M"/>
    <connection from=":J1_13" to="E3" fromLane="1" toLane="1" dir="s" state="M"/>
    <connection from=":J1_15" to="-E1" fromLane="0" toLane="1" via=":J1_19_0" dir="l" state="m"/>
    <connection from=":J1_19" to="-E1" fromLane="0" toLane="1" dir="l" state="M"/>

</net>
