<?xml version="1.0" encoding="UTF-8"?>

<!-- generated on 2024-05-01 04:33:18 by Eclipse SUMO netedit Version 1.19.0
<configuration xmlns:xsi="http://www.w3.org/2001/XMLSchema-instance" xsi:noNamespaceSchemaLocation="http://sumo.dlr.de/xsd/neteditConfiguration.xsd">

    <input>
        <sumocfg-file value="/home/kuriatsu/Source/Penn/straight.sumocfg"/>
        <additional-files value=""/>
        <route-files value="/home/kuriatsu/Source/Penn/straight.rou.xml"/>
        <sumo-net-file value="/home/kuriatsu/Source/Penn/straight.net.xml"/>
    </input>

    <output>
        <output-file value="/home/kuriatsu/Source/Penn/straight.net.xml"/>
    </output>

    <processing>
        <geometry.min-radius.fix.railways value="false"/>
        <geometry.max-grade.fix value="false"/>
        <offset.disable-normalization value="true"/>
        <lefthand value="0"/>
    </processing>

    <junctions>
        <no-internal-links value="false"/>
        <no-turnarounds value="true"/>
        <junctions.corner-detail value="5"/>
        <junctions.limit-turn-speed value="5.50"/>
        <rectangular-lane-cut value="0"/>
    </junctions>

    <pedestrian>
        <walkingareas value="0"/>
    </pedestrian>

</configuration>
-->

<net version="1.16" junctionCornerDetail="5" limitTurnSpeed="5.50" xmlns:xsi="http://www.w3.org/2001/XMLSchema-instance" xsi:noNamespaceSchemaLocation="http://sumo.dlr.de/xsd/net_file.xsd">

    <location netOffset="0.00,0.00" convBoundary="50.00,0.00,50.00,1000.00" origBoundary="-10000000000.00,-10000000000.00,10000000000.00,10000000000.00" projParameter="!"/>

    <edge id="-E0" from="J1" to="J0" priority="-1" length="1000.00">
        <lane id="-E0_0" index="0" allow="pedestrian" speed="13.89" length="1000.00" width="2.00" shape="54.20,17.98 54.20,1000.00"/>
        <lane id="-E0_1" index="1" disallow="pedestrian" speed="13.89" length="1000.00" shape="51.60,17.98 51.60,1000.00">
            <neigh lane="E0_1"/>
        </lane>
    </edge>
    <edge id="E0" from="J0" to="J1" priority="-1" length="1000.00">
        <lane id="E0_0" index="0" allow="pedestrian" speed="13.89" length="1000.00" width="2.00" shape="45.80,1000.00 45.80,17.98"/>
        <lane id="E0_1" index="1" disallow="pedestrian" speed="13.89" length="1000.00" shape="48.40,1000.00 48.40,17.98">
            <neigh lane="-E0_1"/>
        </lane>
    </edge>

    <junction id="J0" type="dead_end" x="50.00" y="1000.00" incLanes="-E0_0 -E0_1" intLanes="" shape="50.00,1000.00 55.20,1000.00 50.00,1000.00"/>
    <junction id="J1" type="dead_end" x="50.00" y="0.00" incLanes="E0_0 E0_1" intLanes="" shape="50.00,17.98 44.80,17.98 50.00,17.98" customShape="1"/>

</net>
